Version 4
SHEET 1 1284 680
WIRE -1024 -208 -1024 -240
WIRE 128 -192 64 -192
WIRE 272 -192 192 -192
WIRE -1024 -96 -1024 -128
WIRE -656 -96 -656 -160
WIRE 64 -48 64 -192
WIRE 128 -48 64 -48
WIRE 272 -48 272 -192
WIRE 272 -48 208 -48
WIRE -1008 -32 -1024 -32
WIRE -1024 16 -1024 -32
WIRE -656 48 -656 -16
WIRE -656 48 -768 48
WIRE -592 48 -656 48
WIRE -464 48 -512 48
WIRE 608 48 592 48
WIRE -464 64 -464 48
WIRE -768 112 -768 48
WIRE -656 112 -656 48
WIRE 144 112 144 80
WIRE -160 128 -256 128
WIRE -48 128 -96 128
WIRE 64 128 64 -48
WIRE 64 128 32 128
WIRE 112 128 64 128
WIRE 608 128 608 48
WIRE -1024 144 -1024 96
WIRE 272 144 272 -48
WIRE 272 144 176 144
WIRE 432 144 272 144
WIRE 576 144 432 144
WIRE 112 160 64 160
WIRE 800 160 640 160
WIRE 576 176 464 176
WIRE -768 224 -768 176
WIRE -656 224 -656 192
WIRE 144 240 144 176
WIRE 464 240 464 176
WIRE 464 240 384 240
WIRE 608 304 608 192
WIRE 64 320 64 160
FLAG 144 240 0
FLAG 144 80 VDD
FLAG -256 128 vin
FLAG -1024 -96 0
FLAG -1024 -240 vin
FLAG -1024 144 0
FLAG -1008 -32 VDD
FLAG -656 224 0
FLAG -656 -160 VDD
FLAG -464 64 VDD/2
FLAG 64 320 VDD/2
FLAG 432 144 vout
FLAG 592 48 VDD
FLAG 608 304 0
FLAG 384 240 VDD/2
FLAG 800 160 comp
FLAG -768 224 0
SYMBOL Opamps\\AD8066 144 80 R0
SYMATTR InstName U1
SYMBOL Misc\\signal -1024 -224 R0
WINDOW 123 24 44 Left 2
WINDOW 39 0 0 Left 0
SYMATTR Value2 AC 1 0
SYMATTR InstName V1
SYMATTR Value SINE(75e-3 5e-3 1000)
SYMBOL res 48 112 R90
WINDOW 0 0 56 VBottom 2
WINDOW 3 32 56 VTop 2
SYMATTR InstName R1
SYMATTR Value 4.6K
SYMATTR SpiceLine tol=1 pwr=0.1
SYMBOL res 224 -64 R90
WINDOW 0 0 56 VBottom 2
WINDOW 3 32 56 VTop 2
SYMATTR InstName R2
SYMATTR Value 750K
SYMATTR SpiceLine tol=1 pwr=0.1
SYMBOL voltage -1024 0 R0
WINDOW 123 0 0 Left 0
WINDOW 39 0 0 Left 0
SYMATTR InstName V2
SYMATTR Value 5
SYMBOL cap 192 -208 R90
WINDOW 0 0 32 VBottom 2
WINDOW 3 32 32 VTop 2
SYMATTR InstName C1
SYMATTR Value 210p
SYMATTR SpiceLine V=50 Irms=0 Rser=0 Lser=0
SYMBOL cap -96 112 R90
WINDOW 0 0 32 VBottom 2
WINDOW 3 32 32 VTop 2
SYMATTR InstName C2
SYMATTR Value 18µ
SYMATTR SpiceLine V=2.5 Irms=0 Rser=0 Lser=0
SYMBOL res -672 -112 R0
SYMATTR InstName R3
SYMATTR Value 10K
SYMATTR SpiceLine tol=1 pwr=0.1
SYMBOL res -672 96 R0
SYMATTR InstName R4
SYMATTR Value 10K
SYMATTR SpiceLine tol=1 pwr=0.1
SYMBOL res -496 32 R90
WINDOW 0 0 56 VBottom 2
WINDOW 3 32 56 VTop 2
SYMATTR InstName R5
SYMATTR Value 1K
SYMATTR SpiceLine tol=1 pwr=0.1
SYMBOL Opamps\\AD8066 608 96 R0
SYMATTR InstName U2
SYMBOL cap -784 112 R0
SYMATTR InstName C3
SYMATTR Value 10µ
SYMATTR SpiceLine V=2.5 Irms=0 Rser=0 Lser=0 mfg="Murata" pn="GRM155R60E106ME16" type="X5R"
TEXT -896 -328 Left 2 !.ac lin 10e-3 1 1e6
